%mem=5GB
%nproc=4
#HF/6-31G* nosymm opt 
 
Mol rotamer scan

0,1
N   -2.72600  -2.85800  -1.18100
N   -4.68800  -3.59200  -1.99900
N   -1.24600   3.31200  -0.69900
N    0.54300   2.43800   0.20600
N    4.67700  -1.27000   0.95600
N   -1.03200   0.94600  -0.48100
C   -0.72000  -1.82100  -0.25200
C   -2.05600  -1.69100  -0.90600
C   -3.85700  -2.57000  -1.78900
C   -2.72900  -0.54100  -1.25700
C   -2.21300   0.79000  -1.05300
C   -2.94900   1.88400  -1.45700
C   -2.43600   3.14300  -1.26400
C   -0.63900   2.19600  -0.34500
C    1.60100   1.53600   0.42300
C    2.71100   1.55600  -0.41200
C    3.74100   0.62700  -0.23400
C    3.66400  -0.34800   0.77100
C    6.00900  -1.10600   0.35600
C    4.41700  -2.58600   1.56000
C    2.53400  -0.35700   1.60000
C    1.50800   0.57500   1.42200
S   -4.28300  -0.90400  -1.96700
H    0.05800  -1.36400  -0.86400
H   -0.46800  -2.87300  -0.11800
H   -0.72500  -1.34700   0.72900
H   -5.66300  -3.38700  -1.86200
H   -4.33100  -4.43000  -1.56800
H    0.77100   3.36000  -0.11500
H   -3.91300   1.76800  -1.92400
H   -2.97200   4.04500  -1.56700
H    2.76500   2.29200  -1.20900
H    4.59100   0.65700  -0.90800
H    6.73600  -1.75500   0.85200
H    6.34500  -0.07100   0.46500
H    5.97300  -1.36300  -0.70700
H    5.17900  -3.31000   1.25700
H    3.44100  -2.96100   1.23900
H    4.42700  -2.50100   2.65000
H    2.44700  -1.08500   2.40000
H    0.62600   0.55900   2.05700

