%mem=5GB
%nproc=4
#HF/6-31G* nosymm opt 
 
Mol rotamer scan

0,1
N    6.44500   0.29900  -0.56200
N    8.17800   0.64100  -1.96600
N    1.04400   3.64900  -0.84100
N    0.63400   2.17500   0.84800
N   -4.95300   2.13600   0.95200
N    2.60800   2.01300  -0.09100
C    4.46800   0.15400   0.86300
C    5.18600   0.77400  -0.29000
C    6.92900   0.94000  -1.60300
C    4.75700   1.79000  -1.11500
C    3.46900   2.43200  -1.00700
C    3.14400   3.46100  -1.86400
C    1.91100   4.05500  -1.75800
C    1.46600   2.66400  -0.06600
C   -0.77400   2.18700   0.82000
C   -1.47100   3.36000   1.08700
C   -2.86900   3.35400   1.13100
C   -3.57700   2.16500   0.93200
C   -5.68300   1.52400  -0.16600
C   -5.72600   3.06900   1.78100
C   -2.86700   0.98700   0.68500
C   -1.46800   0.99600   0.64300
S    5.97100   2.19800  -2.30300
H    4.22500   0.90500   1.61400
H    5.09900  -0.60100   1.33300
H    3.55300  -0.33300   0.52800
H    8.60600  -0.00500  -1.32200
H    8.73300   1.40200  -2.31700
H    1.05500   1.30500   1.10800
H    3.83500   3.80500  -2.61600
H    1.59400   4.87000  -2.41100
H   -0.91200   4.28100   1.23800
H   -3.39900   4.28500   1.30700
H   -6.59200   2.09100  -0.38800
H   -5.96000   0.49800   0.09300
H   -5.05700   1.50700  -1.06300
H   -6.71000   2.64700   2.00200
H   -5.85600   4.01800   1.25400
H   -5.20600   3.25200   2.72600
H   -3.40700   0.05600   0.54200
H   -0.91900   0.07600   0.46400

