%mem=5GB
%nproc=4
#HF/6-31G* nosymm opt 
 
Mol rotamer scan

0,1
N    6.63600   1.05500  -1.06200
N    7.34700  -0.93800  -0.28500
N    0.97600   3.42500   0.59300
N    0.20300   1.31700   0.98900
N   -5.29200   1.93100   0.06900
N    2.32400   1.46400   0.46500
C    5.51800   3.05600  -1.92100
C    5.56600   1.90700  -0.97100
C    6.43400   0.03500  -0.25200
C    4.57300   1.49800  -0.11700
C    3.35000   2.21700   0.10100
C    3.24400   3.58900   0.01800
C    2.02400   4.16900   0.26600
C    1.21300   2.12700   0.69300
C   -1.16500   1.51800   0.72500
C   -1.90400   2.41300   1.48700
C   -3.27800   2.55900   1.26900
C   -3.93600   1.78800   0.30100
C   -6.05500   3.08600   0.56500
C   -6.09800   0.83900  -0.49600
C   -3.17900   0.87200  -0.44300
C   -1.80500   0.73100  -0.22400
S    4.90600  -0.07700   0.55100
H    4.51100   3.21400  -2.30700
H    6.16800   2.84900  -2.77300
H    5.88100   3.96600  -1.44600
H    8.06000  -0.75400  -0.97200
H    6.99400  -1.87600  -0.20600
H    0.56400   0.41000   0.76500
H    4.09600   4.21900  -0.16200
H    1.86800   5.24900   0.22400
H   -1.39400   3.00600   2.24200
H   -3.82800   3.26900   1.87700
H   -7.00900   3.17200   0.03700
H   -5.49000   4.00800   0.40100
H   -6.25200   2.97100   1.63500
H   -7.15300   0.95900  -0.23500
H   -5.75600  -0.12300  -0.10300
H   -6.00400   0.83500  -1.58600
H   -3.65200   0.27000  -1.21300
H   -1.22700   0.01600  -0.80300

