%mem=5GB
%nproc=4
#HF/6-31G* nosymm opt 
 
Mol rotamer scan

0,1
N   -4.18500  -2.17600  -1.10900
N   -3.10300  -4.15100  -1.21200
N   -1.00000   3.31700  -0.73900
N    0.76300   2.39700   0.16300
N    4.99300  -1.12400   1.13000
N   -0.89200   0.95300  -0.44700
C   -5.07900   0.07400  -0.75000
C   -3.92900  -0.83200  -1.03500
C   -3.03900  -2.81800  -1.22000
C   -2.60000  -0.49400  -1.06900
C   -2.10600   0.84900  -0.95900
C   -2.78900   1.95600  -1.41800
C   -2.20400   3.19100  -1.28600
C   -0.43300   2.18300  -0.37100
C    1.80700   1.47500   0.36800
C    1.70400   0.50700   1.36100
C    2.77100  -0.36200   1.60800
C    3.95900  -0.25100   0.88000
C    5.44600  -1.34900   2.50800
C    5.93200  -1.52500   0.07500
C    4.06300   0.74200  -0.10000
C    2.99300   1.61100  -0.34400
S   -1.57600  -1.90500  -1.09000
H   -4.80500   0.85700  -0.04200
H   -5.89200  -0.50100  -0.30400
H   -5.45700   0.52000  -1.66900
H   -4.04800  -4.47500  -1.08000
H   -2.36500  -4.62200  -0.71600
H    1.00700   3.31300  -0.15900
H   -3.72500   1.87200  -1.94100
H   -2.68300   4.10700  -1.63900
H    0.77700   0.42300   1.92200
H    2.67200  -1.13700   2.36200
H    4.98800  -2.26000   2.90200
H    5.16100  -0.50500   3.14300
H    6.53400  -1.45700   2.54200
H    6.38000  -2.49300   0.31900
H    6.72700  -0.78000  -0.02200
H    5.40800  -1.61600  -0.88100
H    4.98300   0.85700  -0.66400
H    3.07800   2.38900  -1.09600

