%mem=5GB
%nproc=4
#HF/6-31G* nosymm opt 
 
Mol rotamer scan

0,1
N    4.32300  -2.67000  -0.17500
N    6.48900  -3.27600  -0.23900
N    2.32400   3.24600  -1.39700
N    0.39400   2.26700  -1.07700
N   -3.48200  -1.10700   1.11300
N    2.21500   0.91900  -0.88500
C    2.04400  -1.79900  -0.26100
C    3.51600  -1.57800  -0.37500
C    5.58200  -2.29800  -0.27200
C    4.18500  -0.41300  -0.68400
C    3.53400   0.84900  -0.93700
C    4.28600   1.96700  -1.22600
C    3.64900   3.16200  -1.45500
C    1.71100   2.11200  -1.12000
C   -0.56100   1.39900  -0.51700
C   -0.93200   0.24100  -1.19200
C   -1.90700  -0.60400  -0.65500
C   -2.53500  -0.28200   0.55300
C   -3.34500  -1.52800   2.51300
C   -4.35800  -1.94200   0.28100
C   -2.16900   0.89500   1.21300
C   -1.19400   1.74000   0.67300
S    5.91200  -0.66600  -0.73700
H    1.61600  -1.16800   0.51800
H    1.83900  -2.83800  -0.00300
H    1.54800  -1.58200  -1.20700
H    7.26300  -3.16300  -0.87100
H    6.03500  -4.17500  -0.22600
H    0.27400   3.25200  -0.93200
H    5.36300   1.92100  -1.27100
H    4.19300   4.08000  -1.68500
H   -0.44100  -0.00200  -2.13100
H   -2.16500  -1.52000  -1.17700
H   -3.66500  -2.56700   2.63500
H   -3.96400  -0.89000   3.15100
H   -2.30200  -1.44600   2.83300
H   -5.27900  -2.17600   0.82300
H   -3.85000  -2.87500   0.02200
H   -4.62200  -1.41000  -0.63800
H   -2.65900   1.16000   2.14500
H   -0.91500   2.65700   1.18400

