%mem=5GB
%nproc=4
#HF/6-31G* nosymm opt 
 
Mol rotamer scan

0,1
N    4.05500  -2.82300  -0.58500
N    6.18500  -3.52000  -0.78800
N    2.32500   3.27800  -1.10400
N    0.35600   2.36400  -0.83400
N   -3.44200  -1.20400   1.17800
N    2.11100   0.91600  -0.84800
C    1.82200  -1.84100  -0.49600
C    3.29900  -1.67900  -0.64100
C    5.32800  -2.50300  -0.68700
C    4.01700  -0.52000  -0.84800
C    3.42300   0.79100  -0.94400
C    4.22300   1.89700  -1.13200
C    3.64100   3.13900  -1.20900
C    1.66100   2.15000  -0.93800
C   -0.63200   1.48600  -0.35300
C   -1.15400   1.66500   0.92400
C   -2.09500   0.76200   1.42700
C   -2.51000  -0.33300   0.66300
C   -3.22900  -1.79300   2.50600
C   -4.38300  -1.92100   0.30800
C   -1.97500  -0.50700  -0.61700
C   -1.03300   0.39600  -1.11800
S    5.72600  -0.84800  -0.98700
H    1.45100  -1.27100   0.35600
H    1.57300  -2.89000  -0.33400
H    1.30900  -1.50700  -1.39700
H    6.94400  -3.37800  -1.43100
H    5.68600  -4.39400  -0.85400
H    0.29200   3.33000  -0.57300
H    5.29500   1.80600  -1.21200
H    4.22500   4.05000  -1.35200
H   -0.82100   2.50600   1.52500
H   -2.51300   0.91200   2.41900
H   -3.54900  -2.83900   2.51900
H   -3.80500  -1.23800   3.25100
H   -2.16900  -1.75200   2.77400
H   -5.27300  -2.20800   0.87600
H   -3.91100  -2.82200  -0.09300
H   -4.69300  -1.27800  -0.52100
H   -2.27000  -1.36000  -1.22100
H   -0.59600   0.25500  -2.10300

