%mem=5GB
%nproc=4
#HF/6-31G* nosymm opt 
 
Mol rotamer scan

0,1
N   -6.13900   1.12800  -0.32200
N   -6.75500  -0.80600  -1.30200
N   -0.24000   3.41300  -0.93000
N    0.54300   1.30300  -1.30300
N    5.72300   1.91000   0.70900
N   -1.62900   1.48700  -1.11800
C   -5.13400   3.05400   0.80500
C   -5.05100   1.95200  -0.19800
C   -5.83000   0.14100  -1.14000
C   -3.94200   1.55600  -0.90100
C   -2.68600   2.25000  -0.88500
C   -2.56600   3.61300  -0.71700
C   -1.31100   4.17000  -0.73600
C   -0.48400   2.12800  -1.13200
C    1.85500   1.44500  -0.81100
C    2.27600   0.66100   0.25900
C    3.56800   0.81000   0.77200
C    4.44300   1.75700   0.22800
C    6.86000   1.94200  -0.22100
C    6.05400   1.64500   2.11500
C    4.00700   2.54500  -0.84000
C    2.71300   2.39500  -1.35100
S   -4.19500   0.02400  -1.69400
H   -4.19900   3.16500   1.35400
H   -5.91600   2.82600   1.53000
H   -5.39700   3.99500   0.32400
H   -7.56600  -0.63400  -0.72900
H   -6.41300  -1.74900  -1.37200
H    0.12800   0.39900  -1.18500
H   -3.42400   4.25800  -0.64300
H   -1.14200   5.24100  -0.61600
H    1.59400  -0.06800   0.68800
H    3.89200   0.17800   1.59400
H    7.72700   1.43800   0.21500
H    7.12600   2.97900  -0.44100
H    6.59800   1.43600  -1.15500
H    6.94600   2.21000   2.40300
H    6.24700   0.57800   2.25900
H    5.22600   1.95100   2.76000
H    4.66800   3.29600  -1.26100
H    2.35900   3.02300  -2.16400

