%mem=5GB
%nproc=4
#HF/6-31G* nosymm opt 
 
Mol rotamer scan

0,1
N   -5.49500   0.51800  -0.24800
N   -7.47100   1.47800  -0.73500
N    0.10000   3.25500  -1.54100
N    0.71400   1.33900  -0.47200
N    5.85700   2.66200   1.32400
N   -1.44400   1.63100  -0.72500
C   -3.24200  -0.27300   0.25800
C   -4.14600   0.75300  -0.34000
C   -6.14300   1.49100  -0.85300
C   -3.80300   1.93500  -0.96100
C   -2.44500   2.38200  -1.15900
C   -2.20600   3.58200  -1.79100
C   -0.91100   3.99900  -1.96800
C   -0.24500   2.11700  -0.96300
C    1.99100   1.72900  -0.02400
C    2.98400   2.06300  -0.93500
C    4.27200   2.38000  -0.49100
C    4.59000   2.34000   0.87300
C    6.83500   3.36500   0.48000
C    6.38100   2.13800   2.59400
C    3.58300   1.97700   1.77800
C    2.29500   1.66300   1.33100
S   -5.22200   2.82100  -1.46100
H   -2.58000  -0.69200  -0.50000
H   -3.83000  -1.08800   0.68000
H   -2.64500   0.16200   1.06000
H   -7.90100   2.37900  -0.61800
H   -7.76400   0.74500  -0.10800
H    0.22100   0.70400   0.12400
H   -3.01500   4.20100  -2.14700
H   -0.65900   4.94300  -2.45600
H    2.73800   2.08800  -1.99400
H    5.02400   2.64200  -1.22700
H    7.63500   3.79000   1.09300
H    6.34700   4.18300  -0.05700
H    7.27200   2.67000  -0.24200
H    7.47500   2.14300   2.59500
H    6.04400   1.10800   2.74400
H    6.02600   2.75600   3.42400
H    3.78800   1.95100   2.84300
H    1.52200   1.38000   2.03900

