%mem=5GB
%nproc=4
#HF/6-31G* nosymm opt 
 
Mol rotamer scan

0,1
N   -4.43000  -1.43200   0.91900
N   -3.56700  -3.25600   1.92500
N   -0.76500   2.52500  -2.45300
N    1.05300   1.99300  -1.36600
N    5.10300  -1.01900   1.07200
N   -0.80900   0.80700  -0.79900
C   -5.03500   0.72400  -0.07000
C   -4.04700  -0.37500   0.13500
C   -3.38900  -2.22000   1.10300
C   -2.72600  -0.37700  -0.23400
C   -2.10500   0.65500  -1.01300
C   -2.76500   1.38900  -1.97600
C   -2.05900   2.33200  -2.68200
C   -0.23800   1.73700  -1.53300
C    2.03200   1.18800  -0.75400
C    2.04200   1.02000   0.62500
C    3.05800   0.28000   1.23800
C    4.08800  -0.29100   0.47700
C    5.33800  -0.99600   2.52300
C    5.84000  -2.05400   0.33100
C    4.08400  -0.07800  -0.90800
C    3.06800   0.66400  -1.51800
S   -1.85400  -1.69700   0.50000
H   -4.56000   1.70300  -0.01600
H   -5.79200   0.68200   0.71400
H   -5.54600   0.61000  -1.02600
H   -4.49300  -3.25700   2.32200
H   -2.79100  -3.47700   2.52500
H    1.30800   2.48500  -2.20100
H   -3.78900   1.19400  -2.24000
H   -2.51600   2.94000  -3.46600
H    1.24000   1.45600   1.21400
H    3.02200   0.14100   2.31300
H    6.33200  -1.39000   2.75700
H    4.58700  -1.60600   3.03200
H    5.28200   0.03000   2.89700
H    6.27100  -2.78900   1.01600
H    6.64700  -1.59300  -0.24400
H    5.16600  -2.57700  -0.35300
H    4.88600  -0.47300  -1.52300
H    3.07800   0.83200  -2.59100

