%mem=5GB
%nproc=4
#HF/6-31G* nosymm opt 
 
Mol rotamer scan

0,1
N   -2.99400  -2.57600  -0.18700
N   -5.08100  -3.25600  -0.70700
N   -0.88800   3.33100  -1.26700
N    0.90200   2.46700  -0.35400
N    4.90000  -1.24600   0.92600
N   -0.87700   1.06000  -0.53500
C   -0.78600  -1.62300   0.23700
C   -2.18900  -1.46600  -0.25100
C   -4.19000  -2.26500  -0.63900
C   -2.78900  -0.34500  -0.78300
C   -2.12600   0.92600  -0.94400
C   -2.79700   1.98600  -1.51600
C   -2.14800   3.18700  -1.66400
C   -0.35300   2.25300  -0.72700
C    1.88700   1.51100  -0.04300
C    1.85300   0.84500   1.17500
C    2.85200  -0.07800   1.50100
C    3.91400  -0.32600   0.62000
C    4.73900  -2.24100   1.99600
C    6.24900  -1.15300   0.34700
C    3.94500   0.37400  -0.59500
C    2.94300   1.29400  -0.91900
S   -4.44400  -0.66500  -1.24200
H   -0.07200  -1.39700  -0.55600
H   -0.61500  -2.64900   0.56300
H   -0.59800  -0.96400   1.08300
H   -4.66800  -4.14000  -0.45400
H   -5.71100  -3.23200  -1.48900
H    1.17800   3.26800  -0.88900
H   -3.81800   1.88800  -1.84800
H   -2.62700   4.05900  -2.11200
H    1.03600   1.04400   1.86200
H    2.79900  -0.58600   2.45800
H    5.46700  -3.05000   1.88100
H    3.73700  -2.67700   1.95700
H    4.88800  -1.76800   2.97100
H    6.97800  -1.66800   0.97900
H    6.55000  -0.10500   0.26100
H    6.25800  -1.61200  -0.64500
H    4.74200   0.19500  -1.30800
H    2.97200   1.83000  -1.86300

