%mem=5GB
%nproc=4
#HF/6-31G* nosymm opt 
 
Mol rotamer scan

0,1
N    6.45300   0.26300  -0.75500
N    8.22600   0.71200  -2.07700
N    1.16200   3.79500  -0.73800
N    0.67100   2.14700   0.75600
N   -4.93300   2.30700   0.77400
N    2.66000   2.03300  -0.15700
C    4.44200   0.01600   0.60600
C    5.20400   0.74400  -0.45300
C    6.97900   1.00700  -1.70500
C    4.82300   1.86300  -1.16100
C    3.55300   2.52900  -1.00100
C    3.27800   3.66100  -1.73600
C    2.06100   4.27900  -1.58400
C    1.53700   2.71300  -0.07700
C   -0.73500   2.20800   0.70500
C   -1.40300   3.36200   1.09300
C   -2.80100   3.39600   1.11000
C   -3.55000   2.26500   0.76100
C   -5.75800   1.09000   0.71900
C   -5.66600   3.57100   0.60400
C   -2.86100   1.09800   0.40200
C   -1.46200   1.06900   0.38300
S    6.07500   2.36800  -2.26900
H    4.20400   0.68200   1.43500
H    5.03900  -0.80800   0.99500
H    3.52000  -0.39800   0.19900
H    8.62000  -0.01900  -1.50500
H    8.81200   1.49000  -2.32500
H    1.06000   1.24000   0.92000
H    3.99600   4.06900  -2.43000
H    1.78400   5.17500  -2.14200
H   -0.82200   4.23900   1.36800
H   -3.29700   4.31000   1.41700
H   -6.78400   1.30800   1.02700
H   -5.35200   0.33100   1.39400
H   -5.77100   0.69500  -0.30100
H   -6.68100   3.38700   0.24000
H   -5.15200   4.20800  -0.12300
H   -5.72500   4.09600   1.56100
H   -3.40300   0.20200   0.11900
H   -0.93600   0.16000   0.10500

