%mem=5GB
%nproc=4
#HF/6-31G* nosymm opt 
 
Mol rotamer scan

0,1
N   -5.47400   0.60400  -0.18600
N   -7.45800   1.60200  -0.58600
N    0.11500   3.39200  -1.39300
N    0.73500   1.39500  -0.48800
N    5.94300   2.51700   1.25600
N   -1.42500   1.72500  -0.66300
C   -3.21700  -0.28000   0.10800
C   -4.12600   0.83200  -0.30200
C   -6.12500   1.67800  -0.57800
C   -3.78600   2.06700  -0.81000
C   -2.42900   2.51400  -1.01400
C   -2.19400   3.75800  -1.55700
C   -0.89800   4.17600  -1.73400
C   -0.22700   2.21700  -0.89400
C    2.02800   1.73900  -0.04800
C    3.00100   2.12600  -0.96100
C    4.30500   2.39300  -0.53200
C    4.65500   2.26300   0.81900
C    7.07600   2.64600   0.32700
C    6.21600   2.92900   2.64100
C    3.67100   1.83600   1.72100
C    2.36900   1.56700   1.28800
S   -5.20800   3.01400  -1.17600
H   -2.59300  -0.59500  -0.72800
H   -3.80400  -1.13900   0.43400
H   -2.58300   0.02900   0.93800
H   -7.77800   0.67600  -0.35000
H   -7.92600   2.09200  -1.32800
H    0.25100   0.72300   0.07300
H   -3.00400   4.41000  -1.84100
H   -0.64900   5.15300  -2.15400
H    2.72600   2.23400  -2.00700
H    5.03500   2.72100  -1.26400
H    8.02500   2.55900   0.86400
H    7.03900   3.61900  -0.17100
H    7.03600   1.85400  -0.42600
H    7.15900   3.48100   2.70300
H    6.28200   2.04700   3.28400
H    5.41500   3.57900   3.00400
H    3.91700   1.68900   2.76700
H    1.61500   1.22800   1.99300

