%mem=5GB
%nproc=4
#HF/6-31G* nosymm opt 
 
Mol rotamer scan

0,1
N   -4.40100  -2.06700   0.01600
N   -3.41900  -4.00100   0.62900
N   -0.95700   2.91700  -1.92300
N    0.82600   2.29200  -0.82900
N    4.83200  -1.16000   1.03400
N   -0.93200   0.84200  -0.74800
C   -5.16600   0.20600  -0.47500
C   -4.08100  -0.81800  -0.44700
C   -3.29600  -2.78100   0.10300
C   -2.74400  -0.61100  -0.67500
C   -2.18500   0.63500  -1.11700
C   -2.85000   1.52700  -1.93200
C   -2.20200   2.67600  -2.31600
C   -0.41400   1.97300  -1.17600
C    1.84600   1.45200  -0.34400
C    2.92600   1.13900  -1.16000
C    3.92700   0.27500  -0.70300
C    3.84600  -0.30700   0.57000
C    6.14800  -1.26500   0.38600
C    4.54600  -2.18300   2.05000
C    2.74300   0.00700   1.37400
C    1.74600   0.87400   0.91600
S   -1.78800  -1.99000  -0.20100
H   -4.80700   1.17800  -0.13900
H   -5.96800  -0.09900   0.19800
H   -5.59000   0.29100  -1.47500
H   -4.36600  -4.18400   0.92100
H   -2.67000  -4.29600   1.23100
H    1.08100   2.99700  -1.49300
H   -3.82500   1.31500  -2.33300
H   -2.66600   3.41800  -2.96900
H    2.98400   1.56900  -2.15600
H    4.75500   0.04200  -1.36300
H    6.86700  -1.74500   1.05600
H    6.52500  -0.26900   0.13800
H    6.06600  -1.85800  -0.52900
H    5.27400  -2.99800   1.99700
H    3.54900  -2.60400   1.89100
H    4.59100  -1.73700   3.04800
H    2.65000  -0.41400   2.37000
H    0.88100   1.10200   1.53300

