%mem=5GB
%nproc=4
#HF/6-31G* nosymm opt 
 
Mol rotamer scan

0,1
N   -5.59400   0.89100  -0.06800
N   -7.49300   1.83900  -0.83400
N    0.20100   2.80200  -1.86600
N    0.65900   1.15100  -0.36100
N    5.81800   2.72900   1.10400
N   -1.46700   1.54700  -0.71400
C   -3.41300   0.00100   0.57100
C   -4.23100   0.98600  -0.19800
C   -6.15900   1.82900  -0.79800
C   -3.79500   1.97600  -1.05100
C   -2.40600   2.24900  -1.33100
C   -2.07100   3.24500  -2.22400
C   -0.74700   3.50300  -2.47200
C   -0.23300   1.86500  -1.04000
C    1.96400   1.53100   0.00900
C    2.23200   1.87100   1.33100
C    3.51900   2.27100   1.70500
C    4.54200   2.34900   0.75400
C    6.97100   1.93200   0.66300
C    6.06900   3.65800   2.21300
C    4.25900   2.01500  -0.57200
C    2.97100   1.61600  -0.94500
S   -5.13700   2.85100  -1.74600
H   -2.79900  -0.59800  -0.10200
H   -4.06500  -0.67500   1.12400
H   -2.77100   0.51300   1.28800
H   -7.88400   1.05500  -0.33500
H   -7.91300   2.10300  -1.70900
H    0.11300   0.72300   0.36000
H   -2.82800   3.82600  -2.72600
H   -0.42000   4.28200  -3.16400
H    1.43700   1.82100   2.06800
H    3.72100   2.51500   2.74400
H    7.74000   1.90700   1.44000
H    7.39700   2.37100  -0.24300
H    6.66100   0.90500   0.44900
H    7.02800   4.16300   2.07000
H    6.09200   3.11100   3.16000
H    5.28100   4.41500   2.25500
H    5.03800   2.08900  -1.32500
H    2.73800   1.38100  -1.98000

