%mem=5GB
%nproc=4
#HF/6-31G* nosymm opt 
 
Mol rotamer scan

0,1
N    5.33500  -1.43300   0.90600
N    4.50200  -2.66400   2.60000
N    1.66200   2.59900  -2.36700
N   -0.17600   1.50800  -1.92200
N   -4.19100  -1.22100   0.88200
N    1.70400   0.71200  -0.90900
C    5.89900  -0.16100  -1.10800
C    4.94400  -0.49100  -0.01000
C    4.31800  -1.69500   1.70200
C    3.64000  -0.08300   0.10100
C    3.01200   0.85900  -0.78100
C    3.68200   1.89600  -1.39600
C    2.97000   2.75500  -2.19700
C    1.12900   1.59300  -1.69900
C   -1.14900   0.81900  -1.17300
C   -1.20600  -0.56900  -1.20200
C   -2.21600  -1.24700  -0.51200
C   -3.19900  -0.54300   0.19600
C   -5.40400  -0.55200   1.37500
C   -3.98600  -2.59300   1.37200
C   -3.14700   0.85800   0.18700
C   -2.13400   1.53300  -0.50100
S    2.78900  -0.97300   1.33600
H    5.38700  -0.05600  -2.06500
H    6.62600  -0.96800  -1.21100
H    6.45000   0.75000  -0.87900
H    5.41100  -3.08700   2.50600
H    3.71200  -3.26500   2.76300
H   -0.41700   2.41300  -2.27800
H    4.72200   2.09500  -1.20700
H    3.43500   3.60300  -2.70400
H   -0.44700  -1.11500  -1.75600
H   -2.23700  -2.33100  -0.55100
H   -6.17500  -1.28700   1.62100
H   -5.80300   0.11600   0.60600
H   -5.17000   0.03000   2.27100
H   -4.66100  -2.81400   2.20300
H   -2.95800  -2.71700   1.72300
H   -4.17800  -3.30600   0.56500
H   -3.88600   1.44100   0.72700
H   -2.10100   2.61900  -0.50500

