%mem=5GB
%nproc=4
#HF/6-31G* nosymm opt 
 
Mol rotamer scan

0,1
N    6.42000   0.37800  -0.46500
N    8.08000   0.44400  -1.99300
N    0.89000   3.42900  -1.21900
N    0.60700   2.35900   0.77400
N   -4.99700   2.17000   0.86300
N    2.54400   2.04700  -0.20100
C    4.51100   0.50300   1.05200
C    5.15700   0.86700  -0.24500
C    6.83600   0.78300  -1.64600
C    4.65500   1.66000  -1.25400
C    3.35000   2.27400  -1.22800
C    2.95100   3.07500  -2.27600
C    1.70200   3.64300  -2.24500
C    1.38000   2.65500  -0.26600
C   -0.80000   2.31700   0.81600
C   -1.45200   1.09000   0.84100
C   -2.85000   1.03700   0.86200
C   -3.61400   2.21200   0.83700
C   -5.74000   0.95500   1.22700
C   -5.81000   3.26300   0.30700
C   -2.94000   3.44000   0.80100
C   -1.54300   3.49000   0.78300
S    5.80300   1.82400  -2.56000
H    4.27100   1.39600   1.62700
H    5.19000  -0.10900   1.64700
H    3.60200  -0.07200   0.87900
H    8.55800  -0.02800  -1.24200
H    8.59100   1.12200  -2.53100
H    1.07500   1.58200   1.19700
H    3.59700   3.26100  -3.11900
H    1.32700   4.28200  -3.04800
H   -0.86900   0.17400   0.84100
H   -3.33400   0.06600   0.87200
H   -6.77700   1.19900   1.47600
H   -5.28200   0.48200   2.10000
H   -5.73400   0.25000   0.39000
H   -6.80800   2.90700   0.03900
H   -5.33500   3.66200  -0.59500
H   -5.90800   4.06400   1.04500
H   -3.49600   4.37200   0.79400
H   -1.02000   4.44200   0.73700

