%mem=5GB
%nproc=4
#HF/6-31G* nosymm opt 
 
Mol rotamer scan

0,1
N   -4.41800  -1.82700   0.45800
N   -3.49200  -3.73700   1.21700
N   -0.85200   2.79900  -2.06100
N    0.94400   2.20300  -0.97300
N    4.88700  -1.22700   1.06000
N   -0.86700   0.84400  -0.69500
C   -5.10900   0.42100  -0.22200
C   -4.06500  -0.64200  -0.13200
C   -3.34000  -2.57700   0.57500
C   -2.73100  -0.51500  -0.42300
C   -2.14000   0.65800  -1.00100
C   -2.79800   1.49700  -1.87400
C   -2.12000   2.57600  -2.38700
C   -0.32000   1.90600  -1.24600
C    1.94800   1.36900  -0.44400
C    2.98500   0.93700  -1.26100
C    3.96600   0.07700  -0.75700
C    3.91200  -0.37700   0.56800
C    4.71300  -1.98000   2.31100
C    6.23800  -1.26900   0.48100
C    2.84800   0.05100   1.37300
C    1.87000   0.91300   0.86600
S   -1.81400  -1.88400   0.14700
H   -4.69900   1.40400   0.00800
H   -5.89700   0.21600   0.50400
H   -5.56700   0.43000  -1.21000
H   -4.43300  -3.85100   1.55800
H   -2.73200  -4.00700   1.81800
H    1.20200   2.83100  -1.70900
H   -3.79500   1.29200  -2.22100
H   -2.57700   3.27300  -3.09200
H    3.02200   1.26700  -2.29500
H    4.75900  -0.25700  -1.41800
H    5.43900  -2.79600   2.37200
H    3.71000  -2.41200   2.35200
H    4.85400  -1.31500   3.16800
H    6.95900  -1.65900   1.20500
H    6.55500  -0.26300   0.19100
H    6.24200  -1.91400  -0.40200
H    2.76700  -0.27500   2.40400
H    1.03500   1.23100   1.48600

