%mem=5GB
%nproc=4
#HF/6-31G* nosymm opt=ModRedundant 
 
Mol dihedral scan

0,1
N   -3.01331  -2.51155  -0.41219
N   -5.22756  -3.08025   0.01776
N   -0.97817   3.56035   0.13129
N    1.03999   2.52808   0.16831
N    4.96434  -1.51465  -0.05374
N   -0.84043   1.19804   0.04070
C   -0.76160  -1.67732  -0.87375
C   -2.17855  -1.41595  -0.45381
C   -4.20008  -2.18855  -0.05691
C   -2.74326  -0.23257  -0.11111
C   -2.16161   1.10984  -0.02969
C   -2.95851   2.25384  -0.01870
C   -2.28736   3.45662   0.06768
C   -0.31018   2.40783   0.10702
C    2.00032   1.48794   0.11857
C    2.30218   0.71729   1.23071
C    3.27260  -0.26293   1.17843
C    4.00193  -0.50744   0.00655
C    5.47545  -2.04836   1.19029
C    5.88127  -1.51748  -1.17216
C    3.70614   0.29226  -1.10082
C    2.71457   1.25663  -1.04245
S   -4.44477  -0.50304   0.26866
H   -0.32370  -0.82986  -1.37539
H   -0.74791  -2.54516  -1.52064
H   -0.14764  -1.89114  -0.00521
H   -5.97008  -2.88098   0.65016
H   -4.93488  -4.03367   0.00875
H    1.36351   3.46879   0.16814
H   -4.02699   2.21893  -0.09266
H   -2.83523   4.38364   0.08106
H    1.76845   0.88261   2.14756
H    3.46181  -0.83013   2.06746
H    6.21933  -2.80108   0.97102
H    4.68907  -2.53302   1.75520
H    5.93400  -1.28860   1.82361
H    6.55492  -2.35685  -1.07339
H    6.47704  -0.60654  -1.23853
H    5.34846  -1.64437  -2.10623
H    4.23350   0.16795  -2.02497
H    2.49997   1.84100  -1.92015

27 2 9 23 F
15 4 14 3 F
23 10 11 6 F
14 4 15 16 -80.0 B
14 4 15 16 S 8 10.0
19 5 18 17 F

