%mem=5GB
%nproc=4
#HF/6-31G* nosymm opt=ModRedundant 
 
Mol dihedral scan

0,1
N   -3.01331  -2.51155  -0.41219
N   -5.22756  -3.08025   0.01776
N   -0.97817   3.56035   0.13129
N    1.03999   2.52808   0.16831
N    4.96579  -1.51547  -0.00870
N   -0.84043   1.19804   0.04070
C   -0.76160  -1.67732  -0.87375
C   -2.17855  -1.41595  -0.45381
C   -4.20008  -2.18855  -0.05691
C   -2.74326  -0.23257  -0.11111
C   -2.16161   1.10984  -0.02969
C   -2.95851   2.25384  -0.01870
C   -2.28736   3.45662   0.06768
C   -0.31018   2.40783   0.10702
C    2.00032   1.48794   0.11857
C    2.04918   0.49089   1.08054
C    3.01909  -0.49053   1.04340
C    4.00146  -0.50964   0.04361
C    4.80519  -2.66340   0.85741
C    6.32674  -1.14148  -0.32426
C    3.95701   0.51458  -0.90628
C    2.96534   1.47999  -0.87153
S   -4.44477  -0.50304   0.26866
H   -0.32370  -0.82986  -1.37539
H   -0.74791  -2.54516  -1.52064
H   -0.14764  -1.89114  -0.00521
H   -5.97008  -2.88098   0.65016
H   -4.93488  -4.03367   0.00875
H    1.36351   3.46879   0.16814
H   -4.02699   2.21893  -0.09266
H   -2.83523   4.38364   0.08106
H    1.31685   0.47914   1.86562
H    3.00679  -1.23797   1.81091
H    5.63840  -3.33552   0.70896
H    3.90539  -3.21219   0.60920
H    4.76408  -2.39774   1.91398
H    6.94386  -2.02876  -0.32917
H    6.75134  -0.43330   0.38802
H    6.38651  -0.70597  -1.31381
H    4.68426   0.56815  -1.69104
H    2.95010   2.24274  -1.63040

27 2 9 23 F
15 4 14 3 F
23 10 11 6 F
14 4 15 16 F
19 5 18 17 10.0 B
19 5 18 17 S 7 10.0

