%mem=5GB
%nproc=4
#HF/6-31G* nosymm opt=ModRedundant 
 
Mol dihedral scan

0,1
N   -3.01331  -2.51155  -0.41219
N   -5.22756  -3.08025   0.01776
N   -0.97817   3.56035   0.13129
N    1.03999   2.52808   0.16831
N    4.75839  -1.70711  -0.00549
N   -0.84043   1.19804   0.04070
C   -0.76160  -1.67732  -0.87375
C   -2.17855  -1.41595  -0.45381
C   -4.20008  -2.18855  -0.05691
C   -2.74326  -0.23257  -0.11111
C   -2.16161   1.10984  -0.02969
C   -2.95851   2.25384  -0.01870
C   -2.28736   3.45662   0.06768
C   -0.31018   2.40783   0.10702
C    2.00032   1.48794   0.11857
C    2.69023   1.18440  -1.04494
C    3.59021   0.13877  -1.08954
C    3.83051  -0.66692   0.03212
C    5.18922  -2.19362  -1.29831
C    4.74036  -2.67789   1.06637
C    3.11095  -0.36690   1.19208
C    2.22817   0.69885   1.23080
S   -4.44477  -0.50304   0.26866
H   -0.32370  -0.82986  -1.37539
H   -0.74791  -2.54516  -1.52064
H   -0.14764  -1.89114  -0.00521
H   -5.97008  -2.88098   0.65016
H   -4.93488  -4.03367   0.00875
H    1.36351   3.46879   0.16814
H   -4.02699   2.21893  -0.09266
H   -2.83523   4.38364   0.08106
H    2.52512   1.77600  -1.92559
H    4.09730  -0.04820  -2.01463
H    5.88896  -3.00449  -1.15381
H    5.70839  -1.41954  -1.84938
H    4.36560  -2.55797  -1.91272
H    5.51691  -3.40922   0.89248
H    3.78847  -3.20310   1.15119
H    4.95422  -2.20554   2.01695
H    3.23611  -0.94933   2.08243
H    1.70550   0.91302   2.14668

27 2 9 23 F
15 4 14 3 F
23 10 11 6 F
14 4 15 16 100.0 B
14 4 15 16 S 8 10.0
19 5 18 17 F

