%mem=5GB
%nproc=4
#HF/6-31G* nosymm opt=ModRedundant 
 
Mol dihedral scan

0,1
N   -3.01331  -2.51155  -0.41219
N   -5.22756  -3.08025   0.01776
N   -0.97817   3.56035   0.13129
N    1.03999   2.52808   0.16831
N    4.82271  -1.64014  -0.16413
N   -0.84043   1.19804   0.04070
C   -0.76160  -1.67732  -0.87375
C   -2.17855  -1.41595  -0.45381
C   -4.20008  -2.18855  -0.05691
C   -2.74326  -0.23257  -0.11111
C   -2.16161   1.10984  -0.02969
C   -2.95851   2.25384  -0.01870
C   -2.28736   3.45662   0.06768
C   -0.31018   2.40783   0.10702
C    2.00032   1.48794   0.11857
C    3.36077   1.74435   0.19154
C    4.28594   0.72440   0.09647
C    3.88933  -0.60660  -0.09366
C    6.20475  -1.29791  -0.42206
C    4.38233  -2.92597  -0.65842
C    2.51645  -0.84968  -0.19053
C    1.59757   0.17887  -0.07052
S   -4.44477  -0.50304   0.26866
H   -0.32370  -0.82986  -1.37539
H   -0.74791  -2.54516  -1.52064
H   -0.14764  -1.89114  -0.00521
H   -5.97008  -2.88098   0.65016
H   -4.93488  -4.03367   0.00875
H    1.36351   3.46879   0.16814
H   -4.02699   2.21893  -0.09266
H   -2.83523   4.38364   0.08106
H    3.70063   2.75348   0.32915
H    5.32418   0.98042   0.16278
H    6.79020  -2.20543  -0.46323
H    6.60976  -0.69394   0.38020
H    6.34260  -0.75912  -1.35978
H    5.21681  -3.61271  -0.64638
H    3.99039  -2.88151  -1.67506
H    3.61662  -3.34326  -0.01652
H    2.14381  -1.84159  -0.34823
H    0.54730  -0.04741  -0.13066

27 2 9 23 F
15 4 14 3 F
23 10 11 6 F
14 4 15 16 -180.0 B
14 4 15 16 S 8 10.0
19 5 18 17 F

