%mem=5GB
%nproc=4
#HF/6-31G* nosymm opt=ModRedundant 
 
Mol dihedral scan

0,1
N   -3.67690   2.37021   4.62815
N   -5.96447   2.74564   4.82109
N   -0.80450   2.24806  -1.11986
N    1.03999   2.52808   0.16831
N    4.96579  -1.51547  -0.00870
N   -1.00739   2.46681   1.22933
C   -1.31263   1.93175   4.18410
C   -2.69119   2.23577   3.67463
C   -4.81655   2.61511   4.09883
C   -3.09061   2.39314   2.38916
C   -2.32391   2.33507   1.14184
C   -2.94644   2.15609  -0.09280
C   -2.11167   2.12568  -1.19135
C   -0.31018   2.40783   0.10702
C    2.00032   1.48794   0.11857
C    2.04918   0.49089   1.08054
C    3.01909  -0.49053   1.04340
C    4.00146  -0.50964   0.04361
C    5.18471  -2.31613   1.17650
C    6.11511  -1.31633  -0.86371
C    3.95701   0.51458  -0.90628
C    2.96534   1.47999  -0.87153
S   -4.82614   2.70932   2.36740
H   -0.73840   1.35134   3.48057
H   -1.40113   1.40240   5.12419
H   -0.76846   2.85315   4.36282
H   -6.69299   3.30536   4.43775
H   -5.81295   2.87435   5.79845
H    1.36351   3.46879   0.16814
H   -4.00525   2.02804  -0.19701
H   -2.51950   1.99050  -2.17883
H    1.31685   0.47914   1.86562
H    3.00679  -1.23797   1.81091
H    5.96939  -3.03215   0.97745
H    4.29634  -2.88014   1.43166
H    5.47495  -1.72296   2.04398
H    6.75956  -2.18123  -0.79487
H    6.69756  -0.43358  -0.59790
H    5.81297  -1.22539  -1.89952
H    4.68426   0.56815  -1.69104
H    2.95010   2.24274  -1.63040

27 2 9 23 F
15 4 14 3 -80.0 B
15 4 14 3 S 8 10.0
23 10 11 6 F
14 4 15 16 F
19 5 18 17 F

