%mem=5GB
%nproc=4
#HF/6-31G* nosymm opt 
 
Mol rotamer scan

0,1
N    6.58800   0.91000  -0.87300
N    7.44000  -0.35300   0.78800
N    0.80600   3.50900  -0.42200
N    0.18000   1.87600   1.04000
N   -5.35900   1.67000   0.19800
N    2.27900   1.83600   0.41900
C    5.32900   2.11800  -2.58900
C    5.46600   1.63200  -1.18500
C    6.46500   0.44900   0.35600
C    4.51300   1.67500  -0.19900
C    3.24800   2.34100  -0.32800
C    3.05000   3.46400  -1.10200
C    1.79700   4.02700  -1.13400
C    1.13000   2.46400   0.32200
C   -1.20200   1.84300   0.77400
C   -1.98900   2.96500   1.00200
C   -3.37200   2.90800   0.80300
C   -3.99100   1.71900   0.39800
C   -6.09200   0.40200   0.07700
C   -6.13100   2.87800  -0.13500
C   -3.18700   0.58600   0.20300
C   -1.80300   0.64800   0.39900
S    4.95900   0.69300   1.17100
H    4.30900   2.00300  -2.95500
H    5.97900   1.53200  -3.24000
H    5.63700   3.16000  -2.66900
H    8.13100  -0.51600   0.07300
H    7.15100  -1.13100   1.35700
H    0.59600   1.00300   1.30000
H    3.85600   3.95100  -1.62100
H    1.57000   4.92000  -1.72000
H   -1.50900   3.88600   1.32100
H   -3.96200   3.79900   0.98900
H   -7.16500   0.56300   0.21600
H   -5.75200  -0.30300   0.84200
H   -5.92500  -0.03200  -0.91200
H   -7.06600   2.61500  -0.63800
H   -5.55100   3.52100  -0.80300
H   -6.36700   3.43000   0.77900
H   -3.62500  -0.35300  -0.11700
H   -1.18700  -0.23400   0.24800

