%mem=5GB
%nproc=4
#HF/6-31G* nosymm opt 
 
Mol rotamer scan

0,1
N    4.89800  -2.25700  -1.51500
N    3.92700  -4.22700  -1.00800
N    2.10100   3.27000  -0.06500
N    0.09200   2.41600  -0.06700
N   -3.99300  -1.22500   1.07100
N    1.79000   0.92800  -0.38600
C    5.59200   0.00500  -2.14400
C    4.68300  -0.90900  -1.39300
C    3.92000  -2.89700  -0.90500
C    3.54000  -0.56400  -0.71800
C    3.09800   0.78600  -0.51600
C    3.95300   1.86000  -0.38200
C    3.41500   3.10400  -0.16100
C    1.39000   2.16300  -0.17600
C   -0.95800   1.51800   0.20600
C   -1.58300   1.54900   1.44800
C   -2.60100   0.63700   1.74400
C   -2.98600  -0.32600   0.80400
C   -5.07900  -1.42000   0.10100
C   -4.26100  -1.69800   2.43500
C   -2.34300  -0.35500  -0.43500
C   -1.32500   0.55700  -0.72900
S    2.60000  -1.96700  -0.28300
H    5.04300   0.82900  -2.59900
H    6.07800  -0.54900  -2.94800
H    6.37400   0.39300  -1.49300
H    4.68600  -4.54900  -1.58700
H    3.02700  -4.66200  -1.11800
H    0.06400   3.31300   0.37800
H    5.02100   1.74000  -0.37000
H    4.03400   3.99500  -0.03400
H   -1.27500   2.28800   2.18200
H   -3.09600   0.68400   2.70900
H   -4.86400  -2.29300  -0.52100
H   -5.17500  -0.54000  -0.54200
H   -6.03000  -1.57800   0.61700
H   -4.75500  -2.67300   2.40400
H   -4.90900  -0.98700   2.95600
H   -3.32300  -1.80100   2.98800
H   -2.61800  -1.11000  -1.16600
H   -0.80200   0.51900  -1.68100

