%mem=5GB
%nproc=4
#HF/6-31G* nosymm opt 
 
Mol rotamer scan

0,1
N    6.45400   0.92300  -1.05400
N    7.30100  -0.79700   0.13100
N    0.72000   3.33500   0.24900
N    0.08300   1.34000   1.15400
N   -5.39700   1.57500   0.08200
N    2.17400   1.46600   0.52000
C    5.19800   2.61200  -2.30400
C    5.34100   1.72000  -1.11700
C    6.33600   0.11100  -0.02300
C    4.39900   1.47300  -0.15000
C    3.14400   2.16300  -0.05200
C    2.95600   3.47100  -0.44500
C    1.71300   4.03200  -0.28600
C    1.03400   2.10900   0.63600
C   -1.30200   1.39900   0.90800
C   -1.89900   0.43600   0.10300
C   -3.27000   0.50000  -0.16700
C   -4.04900   1.53700   0.35400
C   -5.86100   1.48100  -1.30800
C   -6.35400   2.15300   1.03300
C   -3.43800   2.50800   1.15400
C   -2.06600   2.44200   1.42200
S    4.84200   0.11500   0.84900
H    4.17300   2.62700  -2.67300
H    5.83300   2.24400  -3.11200
H    5.52300   3.62500  -2.06700
H    7.98200  -0.74400  -0.61000
H    7.00500  -1.70700   0.44000
H    0.49200   0.42600   1.12800
H    3.76500   4.08200  -0.80300
H    1.49400   5.06400  -0.56900
H   -1.29500  -0.36600  -0.31000
H   -3.73800  -0.26400  -0.78100
H   -6.71100   2.14800  -1.47500
H   -6.16800   0.45500  -1.52600
H   -5.05800   1.76500  -1.99500
H   -7.35000   1.73300   0.86500
H   -6.39900   3.23800   0.90600
H   -6.05000   1.92500   2.05900
H   -4.01800   3.33400   1.55300
H   -1.57800   3.20500   2.02100

