%mem=5GB
%nproc=4
#HF/6-31G* nosymm opt 
 
Mol rotamer scan

0,1
N   -2.98000  -2.56700  -0.05700
N   -5.08500  -3.25600  -0.44700
N   -0.84400   3.19800  -1.69900
N    0.93800   2.42400  -0.69800
N    4.73600  -1.34700   0.90800
N   -0.84500   1.01100  -0.74700
C   -0.78900  -1.56400   0.33800
C   -2.17000  -1.47100  -0.22300
C   -4.13700  -2.33700  -0.64000
C   -2.75900  -0.40900  -0.87500
C   -2.09300   0.84000  -1.14900
C   -2.75600   1.84100  -1.82700
C   -2.10100   3.01900  -2.09000
C   -0.31600   2.17800  -1.05100
C    1.92000   1.50500  -0.28100
C    2.92400   1.11900  -1.16200
C    3.87100   0.16600  -0.77100
C    3.80800  -0.41600   0.50000
C    5.40900  -1.19500   2.20400
C    5.38400  -2.25600  -0.04600
C    2.79100  -0.02500   1.37400
C    1.84500   0.92600   0.98100
S   -4.41100  -0.76900  -1.31200
H   -0.04200  -1.42600  -0.44500
H   -0.63000  -2.54500   0.78500
H   -0.63700  -0.81100   1.11100
H   -6.01200  -2.89300  -0.30900
H   -4.76700  -3.95800   0.20300
H    1.22000   3.16100  -1.31500
H   -3.77400   1.71200  -2.15900
H   -2.57500   3.84400  -2.62600
H    2.96300   1.56000  -2.15300
H    4.66100  -0.11400  -1.46000
H    6.45300  -1.51300   2.13500
H    4.90200  -1.80500   2.95700
H    5.38600  -0.14800   2.52200
H    5.72300  -3.16000   0.46800
H    6.24600  -1.76300  -0.50500
H    4.67800  -2.54600  -0.82900
H    2.72200  -0.48100   2.35700
H    1.03900   1.21800   1.64900

