%mem=5GB
%nproc=4
#HF/6-31G* nosymm opt 
 
Mol rotamer scan

0,1
N   -3.01300  -2.51200  -0.41200
N   -5.22800  -3.08000   0.01800
N   -0.97800   3.56000   0.13100
N    1.04000   2.52800   0.16800
N    4.96600  -1.51500  -0.00900
N   -0.84000   1.19800   0.04100
C   -0.76200  -1.67700  -0.87400
C   -2.17900  -1.41600  -0.45400
C   -4.20000  -2.18900  -0.05700
C   -2.74300  -0.23300  -0.11100
C   -2.16200   1.11000  -0.03000
C   -2.95900   2.25400  -0.01900
C   -2.28700   3.45700   0.06800
C   -0.31000   2.40800   0.10700
C    2.00000   1.48800   0.11900
C    2.04900   0.49100   1.08100
C    3.01900  -0.49100   1.04300
C    4.00100  -0.51000   0.04400
C    5.18500  -2.31600   1.17700
C    6.11500  -1.31600  -0.86400
C    3.95700   0.51500  -0.90600
C    2.96500   1.48000  -0.87200
S   -4.44500  -0.50300   0.26900
H   -0.32400  -0.83000  -1.37500
H   -0.74800  -2.54500  -1.52100
H   -0.14800  -1.89100  -0.00500
H   -5.97000  -2.88100   0.65000
H   -4.93500  -4.03400   0.00900
H    1.36400   3.46900   0.16800
H   -4.02700   2.21900  -0.09300
H   -2.83500   4.38400   0.08100
H    1.31700   0.47900   1.86600
H    3.00700  -1.23800   1.81100
H    5.96900  -3.03200   0.97700
H    4.29600  -2.88000   1.43200
H    5.47500  -1.72300   2.04400
H    6.76000  -2.18100  -0.79500
H    6.69800  -0.43400  -0.59800
H    5.81300  -1.22500  -1.90000
H    4.68400   0.56800  -1.69100
H    2.95000   2.24300  -1.63000

