%mem=5GB
%nproc=4
#HF/6-31G* nosymm opt 
 
Mol rotamer scan

0,1
N    5.07700  -1.86500   0.59700
N    4.18300  -3.31300   2.07500
N    1.60800   2.82500  -1.94000
N   -0.28300   1.77200  -1.65800
N   -4.21700  -1.17500   1.00100
N    1.55700   0.72700  -0.80800
C    5.70200  -0.31100  -1.18800
C    4.73300  -0.76800  -0.14900
C    4.04800  -2.20200   1.35000
C    3.45200  -0.31900   0.03900
C    2.87100   0.78500  -0.67200
C    3.59200   1.87300  -1.11800
C    2.92300   2.88500  -1.76200
C    1.02500   1.75100  -1.43900
C   -1.29100   1.02300  -1.02000
C   -2.15700   1.65300  -0.13300
C   -3.13600   0.91100   0.53600
C   -3.24200  -0.46800   0.33700
C   -4.34100  -1.04600   2.45900
C   -4.82300  -2.37800   0.41600
C   -2.35800  -1.09500  -0.54800
C   -1.38000  -0.35100  -1.21500
S    2.55800  -1.35400   1.12100
H    5.19500  -0.02700  -2.11000
H    6.38700  -1.12600  -1.42700
H    6.29900   0.52200  -0.81900
H    5.06900  -3.76000   1.90400
H    3.36400  -3.89200   2.14500
H   -0.47400   2.73500  -1.85500
H    4.64100   1.98600  -0.91100
H    3.42900   3.78000  -2.12800
H   -2.06800   2.72300   0.03300
H   -3.82300   1.40900   1.21500
H   -4.58100  -2.01200   2.91200
H   -5.13600  -0.33500   2.69900
H   -3.40100  -0.68600   2.88800
H   -5.81400  -2.54600   0.84800
H   -4.19400  -3.25000   0.61700
H   -4.93200  -2.25600  -0.66500
H   -2.40700  -2.16800  -0.70100
H   -0.67200  -0.83600  -1.88200

