%mem=5GB
%nproc=4
#HF/6-31G* nosymm opt=ModRedundant 
 
Mol dihedral scan

0,1
N   -3.01331  -2.51155  -0.41219
N   -5.22756  -3.08025   0.01776
N   -0.97817   3.56035   0.13129
N    1.03999   2.52808   0.16831
N    4.88246  -1.59814   0.11123
N   -0.84043   1.19804   0.04070
C   -0.76160  -1.67732  -0.87375
C   -2.17855  -1.41595  -0.45381
C   -4.20008  -2.18855  -0.05691
C   -2.74326  -0.23257  -0.11111
C   -2.16161   1.10984  -0.02969
C   -2.95851   2.25384  -0.01870
C   -2.28736   3.45662   0.06768
C   -0.31018   2.40783   0.10702
C    2.00032   1.48794   0.11857
C    1.65252   0.18628  -0.20792
C    2.59169  -0.82528  -0.20833
C    3.92840  -0.58153   0.13633
C    4.42122  -2.96957   0.10031
C    6.15305  -1.35892   0.75932
C    4.26194   0.72945   0.48758
C    3.31576   1.73976   0.46182
S   -4.44477  -0.50304   0.26866
H   -0.32370  -0.82986  -1.37539
H   -0.74791  -2.54516  -1.52064
H   -0.14764  -1.89114  -0.00521
H   -5.97008  -2.88098   0.65016
H   -4.93488  -4.03367   0.00875
H    1.36351   3.46879   0.16814
H   -4.02699   2.21893  -0.09266
H   -2.83523   4.38364   0.08106
H    0.63568  -0.03809  -0.46965
H    2.26713  -1.81171  -0.47195
H    5.27761  -3.62884   0.09885
H    3.85579  -3.18023  -0.79876
H    3.80033  -3.21732   0.96154
H    6.77614  -2.23489   0.64737
H    6.05570  -1.14198   1.82356
H    6.67498  -0.53424   0.29032
H    5.26241   0.98408   0.77364
H    3.61213   2.74160   0.71950

27 2 9 23 F
15 4 14 3 F
23 10 11 6 F
14 4 15 16 10.0 B
14 4 15 16 S 7 10.0
19 5 18 17 F

