%mem=5GB
%nproc=12
#HF/6-31G* opt=(MaxCycle=600) 
 
Mol 

0,1 
N     -3.07900  -2.55900  -0.28800
N     -5.48000  -2.88500  -0.02400
N     -0.95200   3.59600   0.01800
N      1.13500   2.56300   0.51900
N      4.94800  -1.57200  -0.20400
N     -0.77800   1.14200   0.14200
C     -0.75300  -1.73800  -0.63100
C     -2.18700  -1.49600  -0.34200
C     -4.32600  -2.10700  -0.03200
C     -2.75800  -0.24000  -0.10900
C     -2.11500   1.05800  -0.06400
C     -2.92000   2.21500  -0.22700
C     -2.27000   3.45700  -0.17800
C     -0.23200   2.41400   0.19300
C      2.05900   1.50800   0.31600
C      1.96400   0.30000   1.03300
C      2.92300  -0.69200   0.88500
C      4.02500  -0.52900   0.01300
C      4.99600  -2.62100   0.78300
C      6.20800  -1.21800  -0.80900
C      4.12300   0.69600  -0.69100
C      3.15800   1.68200  -0.55000
S     -4.42800  -0.38100   0.14900
H     -0.42400  -1.07700  -1.47100
H     -0.55900  -2.80200  -0.91500
H     -0.13900  -1.49100   0.27300
H     -6.09400  -2.67000   0.73400
H     -5.32600  -3.86700  -0.13200
H      1.50600   3.46800   0.30500
H     -4.00000   2.14000  -0.39700
H     -2.83300   4.40000  -0.31000
H      1.12200   0.12700   1.72400
H      2.79900  -1.61800   1.46700
H      5.83300  -3.32900   0.54700
H      4.03200  -3.19600   0.74800
H      5.14200  -2.22700   1.82600
H      6.88400  -2.11300  -0.83300
H      6.73200  -0.38700  -0.26300
H      6.02300  -0.89200  -1.86800
H      4.96400   0.88800  -1.37400
H      3.27100   2.61600  -1.12400


